Circuit: * Z:\home\laurence\Documents\Autopilot_board\spice\lt3467\LT3467.asc

Direct Newton iteration for .op point succeeded.

Date: Sun Sep 26 19:55:22 2010
Total elapsed time: 10.596 seconds.

tnom = 27
temp = 27
method = modified trap
totiter = 362820
traniter = 362806
tranpoints = 101701
accept = 74723
rejected = 26978
matrix size = 19
fillins = 0
solver = Normal
Matrix Compiler1: 598 bytes object code size  2.4/2.6/[1.8]
Matrix Compiler2: off  [2.5]/2.7/2.6


